BEGIN Configuration File: /home/star/MoE_Auto_Tuner/outputs/current_booksim.cfg
// Topology
topology = mesh;
k = 4;
n = 2;

// Routing
routing_function = dim_order;

// Flow Control
num_vcs = 4;

injection_rate = 0.016384;

END Configuration File: /home/star/MoE_Auto_Tuner/outputs/current_booksim.cfg
Class 0:
Packet latency average = 19.6627
	minimum = 7
	maximum = 37
Network latency average = 19.6627
	minimum = 7
	maximum = 37
Slowest packet = 48
Flit latency average = 19.6627
	minimum = 7
	maximum = 37
Slowest flit = 48
Fragmentation average = 0
	minimum = 0
	maximum = 0
Injected packet rate average = 0.0160625
	minimum = 0.01 (at node 2)
	maximum = 0.024 (at node 13)
Accepted packet rate average = 0.0159375
	minimum = 0.006 (at node 11)
	maximum = 0.024 (at node 2)
Injected flit rate average = 0.0160625
	minimum = 0.01 (at node 2)
	maximum = 0.024 (at node 13)
Accepted flit rate average= 0.0159375
	minimum = 0.006 (at node 11)
	maximum = 0.024 (at node 2)
Injected packet length average = 1
Accepted packet length average = 1
Total in-flight flits = 2 (0 measured)
latency change    = 1
throughput change = 1
Class 0:
Packet latency average = 20.1361
	minimum = 7
	maximum = 37
Network latency average = 20.1361
	minimum = 7
	maximum = 37
Slowest packet = 48
Flit latency average = 20.1361
	minimum = 7
	maximum = 37
Slowest flit = 48
Fragmentation average = 0
	minimum = 0
	maximum = 0
Injected packet rate average = 0.0159375
	minimum = 0.0125 (at node 11)
	maximum = 0.021 (at node 13)
Accepted packet rate average = 0.0158438
	minimum = 0.011 (at node 11)
	maximum = 0.02 (at node 0)
Injected flit rate average = 0.0159375
	minimum = 0.0125 (at node 11)
	maximum = 0.021 (at node 13)
Accepted flit rate average= 0.0158438
	minimum = 0.011 (at node 11)
	maximum = 0.02 (at node 0)
Injected packet length average = 1
Accepted packet length average = 1
Total in-flight flits = 3 (0 measured)
latency change    = 0.0235075
throughput change = 0.00591716
Class 0:
Packet latency average = 20.0069
	minimum = 7
	maximum = 37
Network latency average = 20.0069
	minimum = 7
	maximum = 37
Slowest packet = 557
Flit latency average = 20.0069
	minimum = 7
	maximum = 37
Slowest flit = 557
Fragmentation average = 0
	minimum = 0
	maximum = 0
Injected packet rate average = 0.0183125
	minimum = 0.01 (at node 0)
	maximum = 0.025 (at node 11)
Accepted packet rate average = 0.0180625
	minimum = 0.012 (at node 7)
	maximum = 0.025 (at node 12)
Injected flit rate average = 0.0183125
	minimum = 0.01 (at node 0)
	maximum = 0.025 (at node 11)
Accepted flit rate average= 0.0180625
	minimum = 0.012 (at node 7)
	maximum = 0.025 (at node 12)
Injected packet length average = 1
Accepted packet length average = 1
Total in-flight flits = 7 (0 measured)
latency change    = 0.00645648
throughput change = 0.122837
Warmed up ...Time used is 3000 cycles
Class 0:
Packet latency average = 19.7095
	minimum = 7
	maximum = 37
Network latency average = 19.7095
	minimum = 7
	maximum = 37
Slowest packet = 1011
Flit latency average = 19.7339
	minimum = 7
	maximum = 37
Slowest flit = 1011
Fragmentation average = 0
	minimum = 0
	maximum = 0
Injected packet rate average = 0.0155625
	minimum = 0.007 (at node 1)
	maximum = 0.024 (at node 10)
Accepted packet rate average = 0.0155
	minimum = 0.008 (at node 0)
	maximum = 0.023 (at node 15)
Injected flit rate average = 0.0155625
	minimum = 0.007 (at node 1)
	maximum = 0.024 (at node 10)
Accepted flit rate average= 0.0155
	minimum = 0.008 (at node 0)
	maximum = 0.023 (at node 15)
Injected packet length average = 1
Accepted packet length average = 1
Total in-flight flits = 8 (8 measured)
latency change    = 0.015088
throughput change = 0.165323
Class 0:
Packet latency average = 19.4108
	minimum = 7
	maximum = 37
Network latency average = 19.4108
	minimum = 7
	maximum = 37
Slowest packet = 1011
Flit latency average = 19.4269
	minimum = 7
	maximum = 37
Slowest flit = 1011
Fragmentation average = 0
	minimum = 0
	maximum = 0
Injected packet rate average = 0.0156563
	minimum = 0.0125 (at node 1)
	maximum = 0.022 (at node 10)
Accepted packet rate average = 0.0158125
	minimum = 0.012 (at node 0)
	maximum = 0.02 (at node 7)
Injected flit rate average = 0.0156563
	minimum = 0.0125 (at node 1)
	maximum = 0.022 (at node 10)
Accepted flit rate average= 0.0158125
	minimum = 0.012 (at node 0)
	maximum = 0.02 (at node 7)
Injected packet length average = 1
Accepted packet length average = 1
Total in-flight flits = 2 (2 measured)
latency change    = 0.0153895
throughput change = 0.0197628
Class 0:
Packet latency average = 19.3932
	minimum = 7
	maximum = 37
Network latency average = 19.3932
	minimum = 7
	maximum = 37
Slowest packet = 1011
Flit latency average = 19.4039
	minimum = 7
	maximum = 37
Slowest flit = 1011
Fragmentation average = 0
	minimum = 0
	maximum = 0
Injected packet rate average = 0.0160417
	minimum = 0.013 (at node 14)
	maximum = 0.02 (at node 10)
Accepted packet rate average = 0.0160417
	minimum = 0.0116667 (at node 0)
	maximum = 0.0196667 (at node 11)
Injected flit rate average = 0.0160417
	minimum = 0.013 (at node 14)
	maximum = 0.02 (at node 10)
Accepted flit rate average= 0.0160417
	minimum = 0.0116667 (at node 0)
	maximum = 0.0196667 (at node 11)
Injected packet length average = 1
Accepted packet length average = 1
Total in-flight flits = 7 (7 measured)
latency change    = 0.000909435
throughput change = 0.0142857
Class 0:
Packet latency average = 19.3969
	minimum = 7
	maximum = 37
Network latency average = 19.3969
	minimum = 7
	maximum = 37
Slowest packet = 1011
Flit latency average = 19.4048
	minimum = 7
	maximum = 37
Slowest flit = 1011
Fragmentation average = 0
	minimum = 0
	maximum = 0
Injected packet rate average = 0.016125
	minimum = 0.0135 (at node 7)
	maximum = 0.0195 (at node 3)
Accepted packet rate average = 0.0161719
	minimum = 0.01325 (at node 3)
	maximum = 0.01925 (at node 8)
Injected flit rate average = 0.016125
	minimum = 0.0135 (at node 7)
	maximum = 0.0195 (at node 3)
Accepted flit rate average= 0.0161719
	minimum = 0.01325 (at node 3)
	maximum = 0.01925 (at node 8)
Injected packet length average = 1
Accepted packet length average = 1
Total in-flight flits = 4 (4 measured)
latency change    = 0.000190874
throughput change = 0.00805153
Draining all recorded packets ...
Draining remaining packets ...
Time taken is 7061 cycles
====== Overall Traffic Statistics ======
====== Traffic class 0 ======
Packet latency average = 19.4118 (1 samples)
	minimum = 7 (1 samples)
	maximum = 37 (1 samples)
Network latency average = 19.4118 (1 samples)
	minimum = 7 (1 samples)
	maximum = 37 (1 samples)
Flit latency average = 19.4325 (1 samples)
	minimum = 7 (1 samples)
	maximum = 37 (1 samples)
Fragmentation average = 0 (1 samples)
	minimum = 0 (1 samples)
	maximum = 0 (1 samples)
Injected packet rate average = 0.016125 (1 samples)
	minimum = 0.0135 (1 samples)
	maximum = 0.0195 (1 samples)
Accepted packet rate average = 0.0161719 (1 samples)
	minimum = 0.01325 (1 samples)
	maximum = 0.01925 (1 samples)
Injected flit rate average = 0.016125 (1 samples)
	minimum = 0.0135 (1 samples)
	maximum = 0.0195 (1 samples)
Accepted flit rate average = 0.0161719 (1 samples)
	minimum = 0.01325 (1 samples)
	maximum = 0.01925 (1 samples)
Injected packet size average = 1 (1 samples)
Accepted packet size average = 1 (1 samples)
Hops average = 3.47771 (1 samples)
Total run time 0.02144
